@<TRIPOS>MOLECULE
C5Y
 13 12 0 0 0
SMALL
GASTEIGER

@<TRIPOS>ATOM
      1 C          -6.0605   -0.4109    1.1936 C.2     1  C5Y        0.3056
      2 O          -6.5343    0.6877    1.4422 O.2     1  C5Y       -0.2510
      3 O          -6.6335   -1.5070    1.7314 O.3     1  C5Y       -0.4806
      4 C          -4.8471   -0.5530    0.3022 C.3     1  C5Y        0.0556
      5 H          -6.2854   -2.3938    1.5643 H       1  C5Y        0.2951
      6 C          -4.3259    0.7969   -0.1994 C.3     1  C5Y        0.0189
      7 H          -5.1183   -1.1912   -0.5663 H       1  C5Y        0.0387
      8 H          -4.0463   -1.0593    0.8840 H       1  C5Y        0.0387
      9 H          -5.1088    1.3176   -0.7913 H       1  C5Y        0.0403
     10 C          -3.1321    0.6393   -1.0385 C.1     1  C5Y       -0.1050
     11 H          -4.0511    1.4328    0.6695 H       1  C5Y        0.0403
     12 C          -1.8839    0.5965   -1.9119 C.1     1  C5Y       -0.1192
     13 H          -1.0699    0.5686   -2.4815 H       1  C5Y        0.1228
@<TRIPOS>BOND
     1     1     2    2
     2     1     3    1
     3     1     4    1
     4     3     5    1
     5     4     6    1
     6     4     7    1
     7     4     8    1
     8     6     9    1
     9     6    10    1
    10     6    11    1
    11    10    12    3
    12    12    13    1
